_temp/cartella/Load.dss
New "Load.load_003_1" bus1=n_003 model=1 kW=68 kvar=33 kV=20 conn=wye Vmaxpu=1.2 Vminpu=0.8
New "Load.load_003_2" bus1=n_003 model=1 kW=68 kvar=33 kV=20 conn=wye Vmaxpu=1.2 Vminpu=0.8
New "Load.load_003_3" bus1=n_003 model=1 kW=108 kvar=52 kV=20 conn=wye Vmaxpu=1.2 Vminpu=0.8
New "Load.load_004" bus1=n_004 model=1 kW=68 kvar=33 kV=20 conn=wye Vmaxpu=1.2 Vminpu=0.8
New "Load.load_005" bus1=n_005 model=1 kW=68 kvar=33 kV=20 conn=wye Vmaxpu=1.2 Vminpu=0.8
New "Load.load_006_1" bus1=n_006 model=1 kW=68 kvar=33 kV=20 conn=wye Vmaxpu=1.2 Vminpu=0.8
New "Load.load_006_2" bus1=n_006 model=1 kW=68 kvar=33 kV=20 conn=wye Vmaxpu=1.2 Vminpu=0.8
New "Load.load_006_3" bus1=n_006 model=1 kW=68 kvar=33 kV=20 conn=wye Vmaxpu=1.2 Vminpu=0.8
New "Load.load_008" bus1=n_008 model=1 kW=68 kvar=33 kV=20 conn=wye Vmaxpu=1.2 Vminpu=0.8
New "Load.load_009_1" bus1=n_009 model=1 kW=68 kvar=33 kV=20 conn=wye Vmaxpu=1.2 Vminpu=0.8
New "Load.load_009_2" bus1=n_009 model=1 kW=68 kvar=33 kV=20 conn=wye Vmaxpu=1.2 Vminpu=0.8
New "Load.load_010_1" bus1=n_010 model=1 kW=68 kvar=33 kV=20 conn=wye Vmaxpu=1.2 Vminpu=0.8
New "Load.load_010_2" bus1=n_010 model=1 kW=7 kvar=3 kV=20 conn=wye Vmaxpu=1.2 Vminpu=0.8
New "Load.load_011" bus1=n_011 model=1 kW=68 kvar=33 kV=20 conn=wye Vmaxpu=1.2 Vminpu=0.8
New "Load.load_012" bus1=n_012 model=1 kW=68 kvar=33 kV=20 conn=wye Vmaxpu=1.2 Vminpu=0.8
New "Load.load_013_1" bus1=n_013 model=1 kW=68 kvar=33 kV=20 conn=wye Vmaxpu=1.2 Vminpu=0.8
New "Load.load_013_2" bus1=n_013 model=1 kW=68 kvar=33 kV=20 conn=wye Vmaxpu=1.2 Vminpu=0.8
New "Load.load_013_3" bus1=n_013 model=1 kW=68 kvar=33 kV=20 conn=wye Vmaxpu=1.2 Vminpu=0.8
New "Load.load_014_1" bus1=n_014 model=1 kW=68 kvar=33 kV=20 conn=wye Vmaxpu=1.2 Vminpu=0.8
New "Load.load_014_2" bus1=n_014 model=1 kW=108 kvar=52 kV=20 conn=wye Vmaxpu=1.2 Vminpu=0.8
New "Load.load_014_3" bus1=n_014 model=1 kW=108 kvar=52 kV=20 conn=wye Vmaxpu=1.2 Vminpu=0.8
New "Load.load_015_1" bus1=n_015 model=1 kW=442 kvar=214 kV=20 conn=wye Vmaxpu=1.2 Vminpu=0.8
New "Load.load_015_2" bus1=n_015 model=1 kW=108 kvar=52 kV=20 conn=wye Vmaxpu=1.2 Vminpu=0.8
New "Load.load_016" bus1=n_016 model=1 kW=68 kvar=33 kV=20 conn=wye Vmaxpu=1.2 Vminpu=0.8
New "Load.load_017" bus1=n_017 model=1 kW=108 kvar=52 kV=20 conn=wye Vmaxpu=1.2 Vminpu=0.8
New "Load.load_018_1" bus1=n_018 model=1 kW=68 kvar=33 kV=20 conn=wye Vmaxpu=1.2 Vminpu=0.8
New "Load.load_018_2" bus1=n_018 model=1 kW=68 kvar=33 kV=20 conn=wye Vmaxpu=1.2 Vminpu=0.8
New "Load.load_018_3" bus1=n_018 model=1 kW=68 kvar=33 kV=20 conn=wye Vmaxpu=1.2 Vminpu=0.8
New "Load.load_019" bus1=n_019 model=1 kW=68 kvar=33 kV=20 conn=wye Vmaxpu=1.2 Vminpu=0.8
New "Load.load_020" bus1=n_020 model=1 kW=68 kvar=33 kV=20 conn=wye Vmaxpu=1.2 Vminpu=0.8
New "Load.load_021_1" bus1=n_021 model=1 kW=68 kvar=33 kV=20 conn=wye Vmaxpu=1.2 Vminpu=0.8
New "Load.load_021_2" bus1=n_021 model=1 kW=68 kvar=33 kV=20 conn=wye Vmaxpu=1.2 Vminpu=0.8
New "Load.load_022" bus1=n_022 model=1 kW=108 kvar=52 kV=20 conn=wye Vmaxpu=1.2 Vminpu=0.8
New "Load.load_023" bus1=n_023 model=1 kW=68 kvar=33 kV=20 conn=wye Vmaxpu=1.2 Vminpu=0.8
New "Load.load_024_1" bus1=n_024 model=1 kW=68 kvar=33 kV=20 conn=wye Vmaxpu=1.2 Vminpu=0.8
New "Load.load_024_2" bus1=n_024 model=1 kW=68 kvar=33 kV=20 conn=wye Vmaxpu=1.2 Vminpu=0.8
New "Load.load_025" bus1=n_025 model=1 kW=108 kvar=52 kV=20 conn=wye Vmaxpu=1.2 Vminpu=0.8
New "Load.load_026" bus1=n_026 model=1 kW=169 kvar=82 kV=20 conn=wye Vmaxpu=1.2 Vminpu=0.8
New "Load.load_027_1" bus1=n_027 model=1 kW=63 kvar=31 kV=20 conn=wye Vmaxpu=1.2 Vminpu=0.8
New "Load.load_027_2" bus1=n_027 model=1 kW=1030 kvar=499 kV=20 conn=wye Vmaxpu=1.2 Vminpu=0.8
New "Load.load_027_3" bus1=n_027 model=1 kW=466 kvar=226 kV=20 conn=wye Vmaxpu=1.2 Vminpu=0.8
New "Load.load_028" bus1=n_028 model=1 kW=101 kvar=49 kV=20 conn=wye Vmaxpu=1.2 Vminpu=0.8
New "Load.load_030" bus1=n_030 model=1 kW=63 kvar=31 kV=20 conn=wye Vmaxpu=1.2 Vminpu=0.8
New "Load.load_031" bus1=n_031 model=1 kW=101 kvar=49 kV=20 conn=wye Vmaxpu=1.2 Vminpu=0.8
New "Load.load_032_1" bus1=n_032 model=1 kW=63 kvar=31 kV=20 conn=wye Vmaxpu=1.2 Vminpu=0.8
New "Load.load_032_2" bus1=n_032 model=1 kW=6 kvar=3 kV=20 conn=wye Vmaxpu=1.2 Vminpu=0.8
New "Load.load_032_3" bus1=n_032 model=1 kW=63 kvar=31 kV=20 conn=wye Vmaxpu=1.2 Vminpu=0.8
New "Load.load_033_1" bus1=n_033 model=1 kW=63 kvar=31 kV=20 conn=wye Vmaxpu=1.2 Vminpu=0.8
New "Load.load_033_2" bus1=n_033 model=1 kW=63 kvar=31 kV=20 conn=wye Vmaxpu=1.2 Vminpu=0.8
New "Load.load_034" bus1=n_034 model=1 kW=1 kvar=0 kV=20 conn=wye Vmaxpu=1.2 Vminpu=0.8
New "Load.load_035" bus1=n_035 model=1 kW=94 kvar=45 kV=20 conn=wye Vmaxpu=1.2 Vminpu=0.8
New "Load.load_036_1" bus1=n_036 model=1 kW=94 kvar=45 kV=20 conn=wye Vmaxpu=1.2 Vminpu=0.8
New "Load.load_036_2" bus1=n_036 model=1 kW=94 kvar=45 kV=20 conn=wye Vmaxpu=1.2 Vminpu=0.8
New "Load.load_037_1" bus1=n_037 model=1 kW=94 kvar=45 kV=20 conn=wye Vmaxpu=1.2 Vminpu=0.8
New "Load.load_037_2" bus1=n_037 model=1 kW=94 kvar=45 kV=20 conn=wye Vmaxpu=1.2 Vminpu=0.8
New "Load.load_038" bus1=n_038 model=1 kW=94 kvar=45 kV=20 conn=wye Vmaxpu=1.2 Vminpu=0.8
New "Load.load_040_1" bus1=n_040 model=1 kW=234 kvar=45 kV=20 conn=wye Vmaxpu=1.2 Vminpu=0.8
New "Load.load_040_2" bus1=n_040 model=1 kW=94 kvar=45 kV=20 conn=wye Vmaxpu=1.2 Vminpu=0.8
New "Load.load_040_3" bus1=n_040 model=1 kW=94 kvar=45 kV=20 conn=wye Vmaxpu=1.2 Vminpu=0.8
New "Load.load_041_1" bus1=n_041 model=1 kW=94 kvar=45 kV=20 conn=wye Vmaxpu=1.2 Vminpu=0.8
New "Load.load_041_2" bus1=n_041 model=1 kW=94 kvar=45 kV=20 conn=wye Vmaxpu=1.2 Vminpu=0.8
New "Load.load_042_1" bus1=n_042 model=1 kW=6 kvar=3 kV=20 conn=wye Vmaxpu=1.2 Vminpu=0.8
New "Load.load_042_2" bus1=n_042 model=1 kW=94 kvar=45 kV=20 conn=wye Vmaxpu=1.2 Vminpu=0.8
New "Load.load_042_3" bus1=n_042 model=1 kW=94 kvar=45 kV=20 conn=wye Vmaxpu=1.2 Vminpu=0.8
New "Load.load_043_1" bus1=n_043 model=1 kW=94 kvar=45 kV=20 conn=wye Vmaxpu=1.2 Vminpu=0.8
New "Load.load_043_2" bus1=n_043 model=1 kW=94 kvar=45 kV=20 conn=wye Vmaxpu=1.2 Vminpu=0.8
New "Load.load_044" bus1=n_044 model=1 kW=94 kvar=45 kV=20 conn=wye Vmaxpu=1.2 Vminpu=0.8
New "Load.load_045_1" bus1=n_045 model=1 kW=94 kvar=45 kV=20 conn=wye Vmaxpu=1.2 Vminpu=0.8
New "Load.load_045_2" bus1=n_045 model=1 kW=94 kvar=45 kV=20 conn=wye Vmaxpu=1.2 Vminpu=0.8
New "Load.load_046" bus1=n_046 model=1 kW=94 kvar=45 kV=20 conn=wye Vmaxpu=1.2 Vminpu=0.8
New "Load.load_047" bus1=n_047 model=1 kW=94 kvar=45 kV=20 conn=wye Vmaxpu=1.2 Vminpu=0.8
New "Load.load_048_1" bus1=n_048 model=1 kW=94 kvar=45 kV=20 conn=wye Vmaxpu=1.2 Vminpu=0.8
New "Load.load_048_2" bus1=n_048 model=1 kW=94 kvar=45 kV=20 conn=wye Vmaxpu=1.2 Vminpu=0.8
New "Load.load_048_3" bus1=n_048 model=1 kW=150 kvar=73 kV=20 conn=wye Vmaxpu=1.2 Vminpu=0.8
New "Load.load_049_1" bus1=n_049 model=1 kW=1 kvar=0 kV=20 conn=wye Vmaxpu=1.2 Vminpu=0.8
New "Load.load_049_2" bus1=n_049 model=1 kW=3 kvar=1 kV=20 conn=wye Vmaxpu=1.2 Vminpu=0.8
New "Load.load_049_3" bus1=n_049 model=1 kW=94 kvar=45 kV=20 conn=wye Vmaxpu=1.2 Vminpu=0.8
New "Load.load_050" bus1=n_050 model=1 kW=94 kvar=45 kV=20 conn=wye Vmaxpu=1.2 Vminpu=0.8
New "Load.load_051" bus1=n_051 model=1 kW=94 kvar=45 kV=20 conn=wye Vmaxpu=1.2 Vminpu=0.8
New "Load.load_052" bus1=n_052 model=1 kW=94 kvar=45 kV=20 conn=wye Vmaxpu=1.2 Vminpu=0.8
New "Load.load_054_1" bus1=n_054 model=1 kW=94 kvar=45 kV=20 conn=wye Vmaxpu=1.2 Vminpu=0.8
New "Load.load_054_2" bus1=n_054 model=1 kW=94 kvar=45 kV=20 conn=wye Vmaxpu=1.2 Vminpu=0.8
New "Load.load_055_1" bus1=n_055 model=1 kW=94 kvar=45 kV=20 conn=wye Vmaxpu=1.2 Vminpu=0.8
New "Load.load_055_2" bus1=n_055 model=1 kW=94 kvar=45 kV=20 conn=wye Vmaxpu=1.2 Vminpu=0.8
New "Load.load_076_1" bus1=n_076 model=1 kW=15 kvar=7 kV=20 conn=wye Vmaxpu=1.2 Vminpu=0.8
New "Load.load_076_2" bus1=n_076 model=1 kW=34 kvar=16 kV=20 conn=wye Vmaxpu=1.2 Vminpu=0.8
New "Load.load_077_1" bus1=n_077 model=1 kW=15 kvar=7 kV=20 conn=wye Vmaxpu=1.2 Vminpu=0.8
New "Load.load_077_2" bus1=n_077 model=1 kW=34 kvar=16 kV=20 conn=wye Vmaxpu=1.2 Vminpu=0.8
New "Load.load_078_1" bus1=n_078 model=1 kW=49 kvar=24 kV=20 conn=wye Vmaxpu=1.2 Vminpu=0.8
New "Load.load_078_2" bus1=n_078 model=1 kW=154 kvar=74 kV=20 conn=wye Vmaxpu=1.2 Vminpu=0.8
New "Load.load_079_1" bus1=n_079 model=1 kW=31 kvar=15 kV=20 conn=wye Vmaxpu=1.2 Vminpu=0.8
New "Load.load_079_2" bus1=n_079 model=1 kW=31 kvar=15 kV=20 conn=wye Vmaxpu=1.2 Vminpu=0.8
New "Load.load_079_3" bus1=n_079 model=1 kW=49 kvar=24 kV=20 conn=wye Vmaxpu=1.2 Vminpu=0.8
New "Load.load_080_1" bus1=n_080 model=1 kW=31 kvar=15 kV=20 conn=wye Vmaxpu=1.2 Vminpu=0.8
New "Load.load_080_2" bus1=n_080 model=1 kW=31 kvar=15 kV=20 conn=wye Vmaxpu=1.2 Vminpu=0.8
New "Load.load_081_1" bus1=n_081 model=1 kW=31 kvar=15 kV=20 conn=wye Vmaxpu=1.2 Vminpu=0.8
New "Load.load_081_2" bus1=n_081 model=1 kW=49 kvar=24 kV=20 conn=wye Vmaxpu=1.2 Vminpu=0.8
New "Load.load_083_1" bus1=n_083 model=1 kW=31 kvar=15 kV=20 conn=wye Vmaxpu=1.2 Vminpu=0.8
New "Load.load_083_2" bus1=n_083 model=1 kW=31 kvar=15 kV=20 conn=wye Vmaxpu=1.2 Vminpu=0.8
New "Load.load_083_3" bus1=n_083 model=1 kW=31 kvar=15 kV=20 conn=wye Vmaxpu=1.2 Vminpu=0.8
New "Load.load_084_1" bus1=n_084 model=1 kW=31 kvar=15 kV=20 conn=wye Vmaxpu=1.2 Vminpu=0.8
New "Load.load_084_2" bus1=n_084 model=1 kW=31 kvar=15 kV=20 conn=wye Vmaxpu=1.2 Vminpu=0.8
New "Load.load_085_1" bus1=n_085 model=1 kW=31 kvar=15 kV=20 conn=wye Vmaxpu=1.2 Vminpu=0.8
New "Load.load_085_2" bus1=n_085 model=1 kW=31 kvar=15 kV=20 conn=wye Vmaxpu=1.2 Vminpu=0.8
New "Load.load_085_3" bus1=n_085 model=1 kW=31 kvar=15 kV=20 conn=wye Vmaxpu=1.2 Vminpu=0.8
New "Load.load_086_1" bus1=n_086 model=1 kW=123 kvar=60 kV=20 conn=wye Vmaxpu=1.2 Vminpu=0.8
New "Load.load_086_2" bus1=n_086 model=1 kW=93 kvar=45 kV=20 conn=wye Vmaxpu=1.2 Vminpu=0.8
New "Load.load_087_1" bus1=n_087 model=1 kW=31 kvar=15 kV=20 conn=wye Vmaxpu=1.2 Vminpu=0.8
New "Load.load_087_2" bus1=n_087 model=1 kW=31 kvar=15 kV=20 conn=wye Vmaxpu=1.2 Vminpu=0.8
New "Load.load_087_3" bus1=n_087 model=1 kW=31 kvar=15 kV=20 conn=wye Vmaxpu=1.2 Vminpu=0.8
New "Load.load_088" bus1=n_088 model=1 kW=31 kvar=15 kV=20 conn=wye Vmaxpu=1.2 Vminpu=0.8
New "Load.load_089" bus1=n_089 model=1 kW=31 kvar=15 kV=20 conn=wye Vmaxpu=1.2 Vminpu=0.8
New "Load.load_090" bus1=n_090 model=1 kW=31 kvar=15 kV=20 conn=wye Vmaxpu=1.2 Vminpu=0.8
New "Load.load_091" bus1=n_091 model=1 kW=15 kvar=7 kV=20 conn=wye Vmaxpu=1.2 Vminpu=0.8
New "Load.load_092" bus1=n_092 model=1 kW=31 kvar=15 kV=20 conn=wye Vmaxpu=1.2 Vminpu=0.8
New "Load.load_093" bus1=n_093 model=1 kW=31 kvar=15 kV=20 conn=wye Vmaxpu=1.2 Vminpu=0.8
New "Load.load_094_1" bus1=n_094 model=1 kW=31 kvar=15 kV=20 conn=wye Vmaxpu=1.2 Vminpu=0.8
New "Load.load_094_2" bus1=n_094 model=1 kW=31 kvar=15 kV=20 conn=wye Vmaxpu=1.2 Vminpu=0.8
New "Load.load_095" bus1=n_095 model=1 kW=49 kvar=24 kV=20 conn=wye Vmaxpu=1.2 Vminpu=0.8
New "Load.load_096" bus1=n_096 model=1 kW=15 kvar=7 kV=20 conn=wye Vmaxpu=1.2 Vminpu=0.8
New "Load.load_097_1" bus1=n_097 model=1 kW=49 kvar=24 kV=20 conn=wye Vmaxpu=1.2 Vminpu=0.8
New "Load.load_097_2" bus1=n_097 model=1 kW=49 kvar=24 kV=20 conn=wye Vmaxpu=1.2 Vminpu=0.8
New "Load.load_098_1" bus1=n_098 model=1 kW=31 kvar=15 kV=20 conn=wye Vmaxpu=1.2 Vminpu=0.8
New "Load.load_098_2" bus1=n_098 model=1 kW=31 kvar=15 kV=20 conn=wye Vmaxpu=1.2 Vminpu=0.8
New "Load.load_098_3" bus1=n_098 model=1 kW=31 kvar=15 kV=20 conn=wye Vmaxpu=1.2 Vminpu=0.8
New "Load.load_099_1" bus1=n_099 model=1 kW=31 kvar=15 kV=20 conn=wye Vmaxpu=1.2 Vminpu=0.8
New "Load.load_099_2" bus1=n_099 model=1 kW=31 kvar=15 kV=20 conn=wye Vmaxpu=1.2 Vminpu=0.8
New "Load.load_099_3" bus1=n_099 model=1 kW=31 kvar=15 kV=20 conn=wye Vmaxpu=1.2 Vminpu=0.8
New "Load.load_099_4" bus1=n_099 model=1 kW=48 kvar=23 kV=20 conn=wye Vmaxpu=1.2 Vminpu=0.8
New "Load.load_100_1" bus1=n_100 model=1 kW=49 kvar=24 kV=20 conn=wye Vmaxpu=1.2 Vminpu=0.8
New "Load.load_100_2" bus1=n_100 model=1 kW=77 kvar=37 kV=20 conn=wye Vmaxpu=1.2 Vminpu=0.8
New "Load.load_101_1" bus1=n_101 model=1 kW=31 kvar=15 kV=20 conn=wye Vmaxpu=1.2 Vminpu=0.8
New "Load.load_101_2" bus1=n_101 model=1 kW=49 kvar=24 kV=20 conn=wye Vmaxpu=1.2 Vminpu=0.8
New "Load.load_102_1" bus1=n_102 model=1 kW=49 kvar=24 kV=20 conn=wye Vmaxpu=1.2 Vminpu=0.8
New "Load.load_102_2" bus1=n_102 model=1 kW=77 kvar=37 kV=20 conn=wye Vmaxpu=1.2 Vminpu=0.8
New "Load.load_103_1" bus1=n_103 model=1 kW=31 kvar=15 kV=20 conn=wye Vmaxpu=1.2 Vminpu=0.8
New "Load.load_103_2" bus1=n_103 model=1 kW=31 kvar=15 kV=20 conn=wye Vmaxpu=1.2 Vminpu=0.8
New "Load.load_056_1" bus1=n_056 model=1 kW=100 kvar=48 kV=20 conn=wye Vmaxpu=1.2 Vminpu=0.8
New "Load.load_056_2" bus1=n_056 model=1 kW=160 kvar=77 kV=20 conn=wye Vmaxpu=1.2 Vminpu=0.8
New "Load.load_067" bus1=n_067 model=1 kW=38 kvar=18 kV=20 conn=wye Vmaxpu=1.2 Vminpu=0.8
New "Load.load_059_1" bus1=n_059 model=1 kW=38 kvar=18 kV=20 conn=wye Vmaxpu=1.2 Vminpu=0.8
New "Load.load_059_2" bus1=n_059 model=1 kW=38 kvar=18 kV=20 conn=wye Vmaxpu=1.2 Vminpu=0.8
New "Load.load_066" bus1=n_066 model=1 kW=60 kvar=29 kV=20 conn=wye Vmaxpu=1.2 Vminpu=0.8
New "Load.load_060_1" bus1=n_060 model=1 kW=38 kvar=18 kV=20 conn=wye Vmaxpu=1.2 Vminpu=0.8
New "Load.load_060_2" bus1=n_060 model=1 kW=38 kvar=18 kV=20 conn=wye Vmaxpu=1.2 Vminpu=0.8
New "Load.load_068_1" bus1=n_068 model=1 kW=94 kvar=46 kV=20 conn=wye Vmaxpu=1.2 Vminpu=0.8
New "Load.load_068_2" bus1=n_068 model=1 kW=94 kvar=46 kV=20 conn=wye Vmaxpu=1.2 Vminpu=0.8
New "Load.load_068_3" bus1=n_068 model=1 kW=74 kvar=36 kV=20 conn=wye Vmaxpu=1.2 Vminpu=0.8
New "Load.load_068_4" bus1=n_068 model=1 kW=60 kvar=29 kV=20 conn=wye Vmaxpu=1.2 Vminpu=0.8
New "Load.load_065_1" bus1=n_065 model=1 kW=151 kvar=73 kV=20 conn=wye Vmaxpu=1.2 Vminpu=0.8
New "Load.load_065_2" bus1=n_065 model=1 kW=94 kvar=46 kV=20 conn=wye Vmaxpu=1.2 Vminpu=0.8
New "Load.load_064_1" bus1=n_064 model=1 kW=151 kvar=73 kV=20 conn=wye Vmaxpu=1.2 Vminpu=0.8
New "Load.load_064_2" bus1=n_064 model=1 kW=28 kvar=14 kV=20 conn=wye Vmaxpu=1.2 Vminpu=0.8
New "Load.load_062_1" bus1=n_062 model=1 kW=94 kvar=46 kV=20 conn=wye Vmaxpu=1.2 Vminpu=0.8
New "Load.load_062_2" bus1=n_062 model=1 kW=94 kvar=46 kV=20 conn=wye Vmaxpu=1.2 Vminpu=0.8
New "Load.load_062_3" bus1=n_062 model=1 kW=94 kvar=46 kV=20 conn=wye Vmaxpu=1.2 Vminpu=0.8
New "Load.load_062_4" bus1=n_062 model=1 kW=94 kvar=46 kV=20 conn=wye Vmaxpu=1.2 Vminpu=0.8
New "Load.load_063_1" bus1=n_063 model=1 kW=94 kvar=46 kV=20 conn=wye Vmaxpu=1.2 Vminpu=0.8
New "Load.load_063_2" bus1=n_063 model=1 kW=90 kvar=43 kV=20 conn=wye Vmaxpu=1.2 Vminpu=0.8
New "Load.load_063_3" bus1=n_063 model=1 kW=94 kvar=46 kV=20 conn=wye Vmaxpu=1.2 Vminpu=0.8
New "Load.load_063_4" bus1=n_063 model=1 kW=60 kvar=29 kV=20 conn=wye Vmaxpu=1.2 Vminpu=0.8
New "Load.load_063_5" bus1=n_063 model=1 kW=60 kvar=29 kV=20 conn=wye Vmaxpu=1.2 Vminpu=0.8
New "Load.load_063_6" bus1=n_063 model=1 kW=60 kvar=29 kV=20 conn=wye Vmaxpu=1.2 Vminpu=0.8
New "Load.load_063_7" bus1=n_063 model=1 kW=151 kvar=73 kV=20 conn=wye Vmaxpu=1.2 Vminpu=0.8
New "Load.load_058_1" bus1=n_058 model=1 kW=38 kvar=18 kV=20 conn=wye Vmaxpu=1.2 Vminpu=0.8
New "Load.load_058_2" bus1=n_058 model=1 kW=38 kvar=18 kV=20 conn=wye Vmaxpu=1.2 Vminpu=0.8
New "Load.load_058_3" bus1=n_058 model=1 kW=38 kvar=18 kV=20 conn=wye Vmaxpu=1.2 Vminpu=0.8
New "Load.load_061" bus1=n_061 model=1 kW=60 kvar=29 kV=20 conn=wye Vmaxpu=1.2 Vminpu=0.8
New "Load.load_057_1" bus1=n_057 model=1 kW=19 kvar=9 kV=20 conn=wye Vmaxpu=1.2 Vminpu=0.8
New "Load.load_057_2" bus1=n_057 model=1 kW=41 kvar=20 kV=20 conn=wye Vmaxpu=1.2 Vminpu=0.8
New "Load.load_069" bus1=n_069 model=1 kW=137 kvar=66 kV=20 conn=wye Vmaxpu=1.2 Vminpu=0.8
New "Load.load_075_1" bus1=n_075 model=1 kW=219 kvar=106 kV=20 conn=wye Vmaxpu=1.2 Vminpu=0.8
New "Load.load_075_2" bus1=n_075 model=1 kW=137 kvar=66 kV=20 conn=wye Vmaxpu=1.2 Vminpu=0.8
New "Load.load_075_3" bus1=n_075 model=1 kW=219 kvar=106 kV=20 conn=wye Vmaxpu=1.2 Vminpu=0.8
New "Load.load_073_1" bus1=n_073 model=1 kW=219 kvar=106 kV=20 conn=wye Vmaxpu=1.2 Vminpu=0.8
New "Load.load_073_2" bus1=n_073 model=1 kW=137 kvar=66 kV=20 conn=wye Vmaxpu=1.2 Vminpu=0.8
New "Load.load_072_1" bus1=n_072 model=1 kW=219 kvar=106 kV=20 conn=wye Vmaxpu=1.2 Vminpu=0.8
New "Load.load_072_2" bus1=n_072 model=1 kW=219 kvar=106 kV=20 conn=wye Vmaxpu=1.2 Vminpu=0.8
New "Load.load_072_3" bus1=n_072 model=1 kW=219 kvar=106 kV=20 conn=wye Vmaxpu=1.2 Vminpu=0.8
New "Load.load_072_4" bus1=n_072 model=1 kW=219 kvar=106 kV=20 conn=wye Vmaxpu=1.2 Vminpu=0.8
New "Load.load_070_1" bus1=n_070 model=1 kW=219 kvar=106 kV=20 conn=wye Vmaxpu=1.2 Vminpu=0.8
New "Load.load_070_2" bus1=n_070 model=1 kW=88 kvar=42 kV=20 conn=wye Vmaxpu=1.2 Vminpu=0.8
New "Load.load_074_1" bus1=n_074 model=1 kW=137 kvar=66 kV=20 conn=wye Vmaxpu=1.2 Vminpu=0.8
New "Load.load_074_2" bus1=n_074 model=1 kW=137 kvar=66 kV=20 conn=wye Vmaxpu=1.2 Vminpu=0.8
New "Load.load_074_3" bus1=n_074 model=1 kW=137 kvar=66 kV=20 conn=wye Vmaxpu=1.2 Vminpu=0.8
New "Load.load_071_1" bus1=n_071 model=1 kW=137 kvar=66 kV=20 conn=wye Vmaxpu=1.2 Vminpu=0.8
New "Load.load_071_2" bus1=n_071 model=1 kW=88 kvar=42 kV=20 conn=wye Vmaxpu=1.2 Vminpu=0.8
New "Load.load_071_3" bus1=n_071 model=1 kW=219 kvar=106 kV=20 conn=wye Vmaxpu=1.2 Vminpu=0.8
New "Load.load_071_4" bus1=n_071 model=1 kW=88 kvar=42 kV=20 conn=wye Vmaxpu=1.2 Vminpu=0.8
New "Load.load_071_5" bus1=n_071 model=1 kW=49 kvar=24 kV=20 conn=wye Vmaxpu=1.2 Vminpu=0.8
